Lattice="50.0 0.0 0.0 0.0 50.0 0.0 0.0 0.0 50.0" Properties=species:S:1:pos:R:3:forces:R:3 energy=-2298.8851580574014 config_type=QMugs_MD pbc="F F F"
 OpenBabel10252219593D

 52 54  0  0  0  0  0  0  0  0999 V2000
   -4.6570    3.7303   -1.8818 C   0  0  0  0  0  0  0  0  0  0  0  0
   -5.5689    2.5971   -1.8190 N   0  0  0  0  0  0  0  0  0  0  0  0
   -6.9663    2.9870   -1.5065 C   0  0  0  0  0  0  0  0  0  0  0  0
   -5.5343    1.6323   -2.9103 C   0  0  0  0  0  0  0  0  0  0  0  0
   -4.6947    0.4409   -2.4952 C   0  0  0  0  0  0  0  0  0  0  0  0
   -3.3746    0.8869   -2.2271 O   0  0  0  0  0  0  0  0  0  0  0  0
   -2.4887   -0.0224   -1.9285 C   0  0  0  0  0  0  0  0  0  0  0  0
   -2.4739   -1.3623   -2.1957 C   0  0  0  0  0  0  0  0  0  0  0  0
   -1.3875   -2.1663   -1.9530 C   0  0  0  0  0  0  0  0  0  0  0  0
   -0.3407   -1.6940   -1.2212 C   0  0  0  0  0  0  0  0  0  0  0  0
    0.5834   -2.6085   -0.5701 C   0  0  0  0  0  0  0  0  0  0  0  0
    0.5330   -4.1109   -0.7855 C   0  0  0  0  0  0  0  0  0  0  0  0
    1.4515   -4.8321    0.0191 C   0  0  0  0  0  0  0  0  0  0  0  0
    2.4129   -4.2586    0.7577 N   0  0  0  0  0  0  0  0  0  0  0  0
    2.4172   -2.9653    0.7318 C   0  0  0  0  0  0  0  0  0  0  0  0
    3.6713   -2.6536    1.1671 N   0  0  0  0  0  0  0  0  0  0  0  0
    4.2588   -1.4071    1.3975 C   0  0  0  0  0  0  0  0  0  0  0  0
    3.6082   -0.2181    1.0106 C   0  0  0  0  0  0  0  0  0  0  0  0
    4.2823    0.9496    1.2582 C   0  0  0  0  0  0  0  0  0  0  0  0
    5.4654    1.0762    1.9876 C   0  0  0  0  0  0  0  0  0  0  0  0
    6.2506    2.7362    2.0952 S   0  0  0  0  0  0  0  0  0  0  0  0
    6.4042    2.8241    3.7246 N   0  0  0  0  0  0  0  0  0  0  0  0
    5.3438    3.7445    1.5997 O   0  0  0  0  0  0  0  0  0  0  0  0
    7.5476    2.6550    1.5174 O   0  0  0  0  0  0  0  0  0  0  0  0
    6.1560   -0.1596    2.3678 C   0  0  0  0  0  0  0  0  0  0  0  0
    5.4666   -1.3667    2.1227 C   0  0  0  0  0  0  0  0  0  0  0  0
    1.5236   -2.0585    0.1889 N   0  0  0  0  0  0  0  0  0  0  0  0
   -0.2147   -0.2932   -0.9153 C   0  0  0  0  0  0  0  0  0  0  0  0
   -1.2566    0.5401   -1.3727 C   0  0  0  0  0  0  0  0  0  0  0  0
   -4.5120    4.2949   -1.0140 H   0  0  0  0  0  0  0  0  0  0  0  0
   -5.1021    4.4296   -2.5999 H   0  0  0  0  0  0  0  0  0  0  0  0
   -3.7962    3.2607   -2.1934 H   0  0  0  0  0  0  0  0  0  0  0  0
   -6.9051    3.7326   -0.7366 H   0  0  0  0  0  0  0  0  0  0  0  0
   -7.4252    3.5825   -2.4020 H   0  0  0  0  0  0  0  0  0  0  0  0
   -7.5222    2.0772   -1.3945 H   0  0  0  0  0  0  0  0  0  0  0  0
   -6.4555    1.3697   -3.2789 H   0  0  0  0  0  0  0  0  0  0  0  0
   -5.0917    2.1086   -3.8275 H   0  0  0  0  0  0  0  0  0  0  0  0
   -5.0838    0.0799   -1.6011 H   0  0  0  0  0  0  0  0  0  0  0  0
   -4.9127   -0.4350   -3.1736 H   0  0  0  0  0  0  0  0  0  0  0  0
   -3.3239   -1.8977   -2.6714 H   0  0  0  0  0  0  0  0  0  0  0  0
   -1.3707   -3.1386   -2.4123 H   0  0  0  0  0  0  0  0  0  0  0  0
   -0.3569   -4.4902   -1.3573 H   0  0  0  0  0  0  0  0  0  0  0  0
    1.3636   -5.9714   -0.1203 H   0  0  0  0  0  0  0  0  0  0  0  0
    4.1240   -3.4381    1.5383 H   0  0  0  0  0  0  0  0  0  0  0  0
    2.8251   -0.3353    0.3924 H   0  0  0  0  0  0  0  0  0  0  0  0
    3.8712    1.9476    0.9891 H   0  0  0  0  0  0  0  0  0  0  0  0
    7.2855    3.2406    3.9302 H   0  0  0  0  0  0  0  0  0  0  0  0
    6.5196    1.8730    4.0586 H   0  0  0  0  0  0  0  0  0  0  0  0
    7.1356   -0.1914    2.7359 H   0  0  0  0  0  0  0  0  0  0  0  0
    5.6974   -2.3277    2.4084 H   0  0  0  0  0  0  0  0  0  0  0  0
    0.6760   -0.0306   -0.3352 H   0  0  0  0  0  0  0  0  0  0  0  0
   -1.1572    1.6457   -1.2786 H   0  0  0  0  0  0  0  0  0  0  0  0
  1  2  1  0  0  0  0
  1 30  1  0  0  0  0
  2  3  1  0  0  0  0
  3 35  1  0  0  0  0
  3 33  1  0  0  0  0
  4  5  1  0  0  0  0
  4  2  1  0  0  0  0
  5  6  1  0  0  0  0
  5 38  1  0  0  0  0
  6  7  1  0  0  0  0
  7 29  1  0  0  0  0
  8  9  1  0  0  0  0
  8  7  2  0  0  0  0
  9 10  2  0  0  0  0
 10 28  1  0  0  0  0
 10 11  1  0  0  0  0
 11 27  2  0  0  0  0
 12 11  1  0  0  0  0
 12 13  2  0  0  0  0
 13 14  1  0  0  0  0
 15 14  2  0  0  0  0
 15 16  1  0  0  0  0
 16 17  1  0  0  0  0
 16 44  1  0  0  0  0
 17 26  1  0  0  0  0
 18 19  1  0  0  0  0
 18 17  2  0  0  0  0
 19 20  2  0  0  0  0
 20 21  1  0  0  0  0
 20 25  1  0  0  0  0
 21 22  1  0  0  0  0
 22 47  1  0  0  0  0
 22 48  1  0  0  0  0
 23 21  2  0  0  0  0
 24 21  2  0  0  0  0
 25 49  1  0  0  0  0
 26 25  2  0  0  0  0
 26 50  1  0  0  0  0
 27 15  1  0  0  0  0
 28 51  1  0  0  0  0
 29 52  1  0  0  0  0
 29 28  2  0  0  0  0
 31  1  1  0  0  0  0
 32  1  1  0  0  0  0
 34  3  1  0  0  0  0
 36  4  1  0  0  0  0
 37  4  1  0  0  0  0
 39  5  1  0  0  0  0
 40  8  1  0  0  0  0
 41  9  1  0  0  0  0
 42 12  1  0  0  0  0
 43 13  1  0  0  0  0
 45 18  1  0  0  0  0
 46 19  1  0  0  0  0
M  END
$$$$
